output/voltdump.csv
# output/voltdump.csv run at 2018-01-30 00:00:00 EST on 8 nodes
node_name,voltA_mag,voltA_angle,voltB_mag,voltB_angle,voltC_mag,voltC_angle
load_102,2398.399390,-0.525644,2400.693641,3.664824,2399.835037,1.569076
load_103,2399.483976,-0.525880,2400.702958,3.665414,2398.288143,1.568648
load_201,2398.638240,-0.525717,2401.020503,3.664962,2399.698878,1.569053
load_202,2399.524068,-0.525837,2400.694818,3.665390,2398.431891,1.568665
load_203,2398.580182,-0.526010,2401.333666,3.665170,2398.761639,1.569037
load_301,2397.760586,-0.526054,2401.945826,3.664882,2399.518420,1.569458
load_302,2396.533346,-0.526613,2403.245858,3.664864,2398.962872,1.569900
load_303,2395.919835,-0.526893,2403.895954,3.664855,2398.685313,1.570121
